*SPEF "IEEE 1481-1998"
*DESIGN "cmp"
*DATE "Sun Aug 22 05:00:50 2021"
*VENDOR "AUC CSCE Department"
*PROGRAM "SPEF Extractor"
*VERSION "1.0"
*DESIGN_FLOW "PIN_CAP NONE"
*DIVIDER /
*DELIMITER :
*BUS_DELIMITER []
*T_UNIT 1.00000 NS
*C_UNIT 1.00000 PF
*R_UNIT 1.00000 OHM
*L_UNIT 1.00000 HENRY


*NAME_MAP
*0 A[0]
*1 A[1]
*2 A[2]
*3 A[3]
*4 B[0]
*5 B[1]
*6 B[2]
*7 B[3]
*8 _00_
*9 _01_
*10 _02_
*11 _03_
*12 _05_
*13 clk
*14 net1
*15 net10
*16 net11
*17 net2
*18 net3
*19 net4
*20 net5
*21 net6
*22 net7
*23 net8
*24 out

*D_NET *0 0.0018471850212600002
*CONN
*P A[0] I
*I input1:A I
*CAP
0 input1:A 0.0010248847529600001
1 *0:2 2.3813806740000006e-05
2 *0:3 4.640188412000001e-05
3 *0:4 0.00075208457744
4 *0:1 0
*RES
0 input1:A *0:1 10.678571428571429
1 *0:2 *0:3 0.15178571428571427
2 *0:3 *0:4 0.4107142857142857
3 *0:4 *0:5 8.499999999999998
4 input1:A input1:A 0
5 *0:1 *0:2 0
*END

*D_NET *1 0.0014114079405
*CONN
*P A[1] I
*I input2:A I
*CAP
5 *1:1 0.00065939557026
6 *1:3 0.00075201237024
7 input2:A 0
*RES
6 *1:1 *1:2 7.437499999999999
7 *1:3 input2:A 7.803571428571428
8 *1:3 *1:2 0
9 input2:A input2:A 0
*END

*D_NET *2 0.0013541108231400001
*CONN
*P A[2] I
*I input3:A I
*CAP
8 input3:A 4.017137184e-05
9 *2:1 0.0005181217564799999
10 *2:3 0.00015622667414000004
11 *2:5 0.00063959102068
12 *2:2 0
*RES
10 input3:A *2:1 0.30357142857142855
11 *2:1 *2:2 5.339285714285714
12 *2:3 *2:4 1.669642857142857
13 *2:5 *2:4 0.4107142857142857
14 *2:5 *2:6 6.678571428571428
15 input3:A input3:A 0
16 *2:2 *2:3 0
*END

*D_NET *3 0.00117751732674
*CONN
*P A[3] I
*I input4:A I
*CAP
13 *3:1 0.00065939557026
14 input4:A 0.0005181217564799999
15 *3:3 0
*RES
17 *3:1 *3:2 7.437499999999999
18 input4:A *3:3 5.339285714285714
19 *3:3 *3:2 0
20 input4:A input4:A 0
*END

*D_NET *4 0.00117006412844
*CONN
*P B[0] I
*I input5:A I
*CAP
16 *4:1 0.0005567274927
17 *4:3 0.00036808726198
18 *4:5 0.00024524937376
19 *4:4 0
20 input5:A 0
*RES
21 *4:1 *4:2 0.9729000000000001
22 *4:3 *4:4 4.098214285714286
23 *4:5 input5:A 2.464285714285714
24 *4:4 *4:2 0
25 *4:5 *4:3 0
26 input5:A input5:A 0
*END

*D_NET *5 0.0018044450455199997
*CONN
*P B[1] I
*I input6:A I
*CAP
21 input6:A 5.034052896000001e-05
22 *5:2 0.00026215696806
23 *5:4 0.0008326488740999999
24 *5:6 0.0006592986743999998
25 *5:1 0
*RES
27 input6:A *5:1 0.4107142857142857
28 *5:2 *5:3 2.883928571428571
29 *5:4 *5:5 1.4773666666666667
30 *5:6 *5:5 0.10653333333333334
31 *5:6 *5:7 1.0089333333333335
32 input6:A input6:A 0
33 *5:1 *5:3 0
34 *5:2 *5:4 0
*END

*D_NET *6 0.0015683124458200004
*CONN
*P B[2] I
*I input7:A I
*CAP
26 *6:1 6.353766696000002e-05
27 *6:2 4.640188412000001e-05
28 *6:4 0.00014576891520000004
29 *6:5 0.0008712561581000002
30 *6:7 0.00040117644959999997
31 *6:8 4.017137184e-05
32 input7:A 0
*RES
35 *6:1 *6:2 0.6071428571428571
36 *6:2 *6:3 0.4107142857142857
37 *6:4 *6:3 0.6071428571428571
38 *6:4 *6:5 0.8214285714285714
39 *6:5 *6:6 9.866071428571429
40 *6:7 *6:8 4.107142857142857
41 *6:8 input7:A 0.30357142857142855
42 *6:7 *6:6 0
43 input7:A input7:A 0
*END

*D_NET *7 0.00133682724372
*CONN
*P B[3] I
*I input8:A I
*CAP
33 *7:1 0.0003596407917
34 *7:3 0.00097718645202
35 *7:4 0
36 input8:A 0
*RES
44 *7:1 *7:2 0.6125666666666667
45 *7:3 *7:4 11.080357142857142
46 *7:4 *7:2 0
47 input8:A input8:A 0
48 input8:A *7:3 0
*END

*D_NET *8 0.00024643897664
*CONN
*I _11_:A1 I
*I _06_:X O
*CAP
37 *8:1 0.00024643897664
38 _11_:A1 0
39 _06_:X 0
*RES
49 *8:1 _11_:A1 0.30357142857142855
50 *8:1 _06_:X 2.0535714285714284
51 _11_:A1 _11_:A1 0
52 _06_:X _06_:X 0
*END

*D_NET *9 0.00020934475308000003
*CONN
*I _11_:A2 I
*I _07_:X O
*CAP
40 *9:1 9.002024044000002e-05
41 *9:3 5.034052896000001e-05
42 *9:4 6.898398368e-05
43 _07_:X 0
44 _11_:A2 0
*RES
53 *9:1 *9:2 0.9107142857142857
54 *9:3 *9:4 0.4107142857142857
55 *9:4 _11_:A2 0.6071428571428571
56 _07_:X _07_:X 0
57 _07_:X *9:1 0
58 *9:3 *9:2 0
59 _11_:A2 _11_:A2 0
*END

*D_NET *10 0.00016946796088000002
*CONN
*I _11_:A3 I
*I _08_:X O
*CAP
45 *10:1 0.00016946796088000002
46 _11_:A3 0
47 _08_:X 0
*RES
60 *10:1 *10:2 1.8214285714285714
61 _11_:A3 _11_:A3 0
62 _11_:A3 *10:1 0
63 _08_:X _08_:X 0
64 _08_:X *10:2 0
*END

*D_NET *11 0.0005861611383999999
*CONN
*I _11_:A4 I
*I _09_:X O
*CAP
48 *11:1 5.034052896000001e-05
49 *11:2 0.00032836340175999997
50 *11:4 0.00016728583584
51 *11:5 4.017137184e-05
52 _09_:X 0
53 _11_:A4 0
*RES
65 *11:1 _09_:X 0.4107142857142857
66 *11:2 *11:3 3.642857142857143
67 *11:4 *11:5 1.6428571428571428
68 *11:5 _11_:A4 0.30357142857142855
69 _09_:X _09_:X 0
70 *11:1 *11:2 0
71 *11:4 *11:3 0
72 _11_:A4 _11_:A4 0
*END

*D_NET *12 0.00033675379672000005
*CONN
*I _12__2:A I
*I _11_:X O
*CAP
54 _12__2:A 0.00016728583584
55 *12:2 0.00016946796088000002
56 *12:1 0
57 _11_:X 0
*RES
73 _12__2:A *12:1 1.6428571428571428
74 *12:2 *12:3 1.8214285714285714
75 _12__2:A _12__2:A 0
76 *12:1 *12:2 0
77 _11_:X _11_:X 0
78 _11_:X *12:3 0
*END

*D_NET *13 0.0012879001682200002
*CONN
*P clk I
*I _10__1:A I
*CAP
58 *13:1 0.00028423114272
59 *13:2 0.0010036690255000001
60 _10__1:A 0
*RES
79 *13:1 _10__1:A 2.875
80 *13:2 *13:3 11.383928571428571
81 _10__1:A _10__1:A 0
82 *13:1 *13:2 0
*END

*D_NET *14 0.00036180135508
*CONN
*I input1:X O
*I _08_:A2_N I
*I _08_:B2 I
*CAP
61 *14:1 0.00014298538739999998
62 input1:X 5.034052896000001e-05
63 _08_:A2_N 0.00012830406688
64 _08_:B2 4.017137184e-05
65 *14:3 0
*RES
83 *14:1 *14:2 1.5178571428571426
84 input1:X *14:3 0.4107142857142857
85 _08_:A2_N _08_:B2 1.232142857142857
86 _08_:B2 _08_:B2 0.30357142857142855
87 _08_:B2 _08_:B2 0
88 _08_:B2 *14:1 0
89 *14:3 *14:2 0
90 input1:X input1:X 0
91 _08_:A2_N _08_:A2_N 0
*END

*D_NET *15 0.00027128945428
*CONN
*I _11_:B1 I
*I _10__1:Y O
*CAP
66 *15:1 0.00012830406688
67 *15:2 0.00014298538739999998
68 _11_:B1 0
69 _10__1:Y 0
*RES
92 *15:1 _11_:B1 1.232142857142857
93 *15:2 *15:3 1.5178571428571426
94 _11_:B1 _11_:B1 0
95 *15:1 *15:2 0
96 _10__1:Y _10__1:Y 0
97 _10__1:Y *15:3 0
*END

*D_NET *16 0.00023230768531999998
*CONN
*I output9:A I
*I _12__2:Y O
*CAP
70 *16:1 0.00014298538739999998
71 *16:3 8.932229792e-05
72 output9:A 0
73 _12__2:Y 0
*RES
98 *16:1 *16:2 1.5178571428571426
99 *16:3 _12__2:Y 0.8214285714285714
100 output9:A output9:A 0
101 output9:A *16:1 0
102 *16:3 *16:2 0
103 _12__2:Y _12__2:Y 0
*END

*D_NET *17 0.00166408244808
*CONN
*I input2:X O
*I _06_:A2_N I
*I _06_:B2 I
*CAP
74 *17:1 0.00030855885217999997
75 *17:4 0.00047401755590000005
76 input2:X 0.00071303060128
77 *17:6 4.017137184e-05
78 *17:7 0.00012830406688
79 _06_:A2_N 0
80 *17:5 0
81 _06_:B2 0
*RES
104 *17:1 *17:2 2.883928571428571
105 *17:1 *17:3 0.4107142857142857
106 *17:4 *17:3 5.3125
107 input2:X *17:5 7.3928571428571415
108 *17:6 _06_:B2 0.30357142857142855
109 *17:7 *17:6 1.232142857142857
110 _06_:A2_N _06_:A2_N 0
111 _06_:A2_N *17:2 0
112 *17:5 *17:4 0
113 input2:X input2:X 0
114 _06_:B2 _06_:B2 0
115 *17:7 *17:8 0
*END

*D_NET *18 0.0010502487222
*CONN
*I input3:X O
*I _07_:A2_N I
*I _07_:B2 I
*CAP
82 _07_:A2_N 8.932229792e-05
83 *18:2 0.00063291299678
84 *18:4 4.640188412000001e-05
85 *18:5 2.3813806740000006e-05
86 input3:X 0.00016728583584
87 _07_:B2 4.017137184e-05
88 *18:1 5.034052896000001e-05
89 *18:6 0
*RES
116 _07_:A2_N *18:1 0.8214285714285714
117 *18:2 *18:3 7.133928571428571
118 *18:4 *18:3 0.4107142857142857
119 *18:5 *18:4 0.15178571428571427
120 input3:X *18:6 1.6428571428571428
121 _07_:B2 _07_:B2 0.30357142857142855
122 *18:1 _07_:B2 0.4107142857142857
123 _07_:A2_N _07_:A2_N 0
124 *18:1 *18:2 0
125 *18:6 *18:5 0
126 input3:X input3:X 0
127 _07_:B2 _07_:B2 0
*END

*D_NET *19 0.00046505786360000005
*CONN
*I input4:X O
*I _09_:A2_N I
*I _09_:B2 I
*CAP
90 _09_:B2 0.00016728583584
91 *19:2 0.00016946796088000002
92 _09_:A2_N 0.00012830406688
93 *19:1 0
94 input4:X 0
*RES
128 _09_:B2 *19:1 1.6428571428571428
129 *19:2 *19:3 1.8214285714285714
130 _09_:A2_N _09_:B2 1.232142857142857
131 _09_:B2 _09_:B2 0
132 *19:1 *19:3 0
133 input4:X input4:X 0
134 input4:X *19:2 0
135 _09_:A2_N _09_:A2_N 0
*END

*D_NET *20 0.0017770676652000001
*CONN
*I input5:X O
*I _08_:A1_N I
*I _08_:B1 I
*CAP
95 _08_:B1 0.00024643897664
96 *20:2 0.0008050497244000001
97 input5:X 0.0004791399875199999
98 *20:5 0.00024643897664
99 *20:1 0
100 *20:4 0
101 _08_:A1_N 0
*RES
136 _08_:B1 *20:1 2.0535714285714284
137 *20:2 *20:3 9.107142857142856
138 input5:X *20:4 4.928571428571428
139 *20:5 _08_:A1_N 0.30357142857142855
140 *20:5 _08_:B1 2.0535714285714284
141 _08_:B1 _08_:B1 0.30357142857142855
142 _08_:B1 _08_:B1 0
143 *20:1 *20:3 0
144 *20:4 *20:2 0
145 input5:X input5:X 0
146 _08_:A1_N _08_:A1_N 0
*END

*D_NET *21 0.00144529340544
*CONN
*I input6:X O
*I _06_:A1_N I
*I _06_:B1 I
*CAP
102 _06_:A1_N 8.932229792e-05
103 *21:2 0.00043429369568000003
104 input6:X 0.00075320197312
105 *21:5 0.00012830406688
106 *21:1 4.017137184e-05
107 *21:4 0
108 _06_:B1 0
*RES
147 _06_:A1_N *21:1 0.8214285714285714
148 *21:2 *21:3 4.857142857142857
149 input6:X *21:4 7.3928571428571415
150 input6:X input6:X 0.30357142857142855
151 *21:5 _06_:B1 1.232142857142857
152 *21:1 *21:5 0.30357142857142855
153 _06_:A1_N _06_:A1_N 0
154 *21:1 *21:2 0
155 *21:4 *21:3 0
156 input6:X input6:X 0
157 _06_:B1 _06_:B1 0
*END

*D_NET *22 0.00042607609464
*CONN
*I input7:X O
*I _07_:A1_N I
*I _07_:B1 I
*CAP
109 _07_:A1_N 0.0002062676048
110 *22:1 5.034052896000001e-05
111 *22:2 0.00016946796088000002
112 _07_:B1 0
113 input7:X 0
114 *22:4 0
*RES
158 _07_:A1_N _07_:B1 2.0535714285714284
159 *22:1 input7:X 0.4107142857142857
160 *22:2 *22:3 1.8214285714285714
161 _07_:B1 _07_:B1 0
162 _07_:A1_N _07_:A1_N 0
163 input7:X input7:X 0
164 *22:1 *22:2 0
165 *22:4 *22:3 0
*END

*D_NET *23 0.0009358566235599999
*CONN
*I input8:X O
*I _09_:A1_N I
*I _09_:B1 I
*CAP
115 *23:1 0.00016728583584
116 *23:2 0.00035484597524
117 input8:X 0.00016728583584
118 *23:5 0.0002062676048
119 _09_:A1_N 4.017137184e-05
120 *23:4 0
121 _09_:B1 0
*RES
166 *23:1 _09_:A1_N 1.6428571428571428
167 *23:2 *23:3 3.946428571428571
168 input8:X *23:4 1.6428571428571428
169 *23:5 _09_:B1 2.0535714285714284
170 _09_:A1_N *23:5 0.30357142857142855
171 _09_:A1_N _09_:A1_N 0
172 *23:1 *23:2 0
173 *23:4 *23:3 0
174 input8:X input8:X 0
175 _09_:B1 _09_:B1 0
*END

*D_NET *24 0.0021327739338400003
*CONN
*P out O
*I output9:X O
*CAP
122 output9:X 0.00012830406688
123 *24:2 0.00065939557026
124 *24:4 0.0013450742967
125 *24:1 0
*RES
176 output9:X *24:1 1.232142857142857
177 *24:2 *24:3 7.437499999999999
178 *24:4 *24:5 2.4142333333333332
179 output9:X output9:X 0
180 *24:1 *24:3 0
181 *24:2 *24:4 0
*END

